<<<<<<< HEAD
# File generated by Flopy version 3.3.2 on 01/25/2021 at 17:59:33.
=======
# File generated by Flopy version 3.3.2 on 01/25/2021 at 17:42:58.
>>>>>>> experiment1
BEGIN options
END options

BEGIN timing
  TDIS6  tutorial01_mf6.tdis
END timing

BEGIN models
  gwf6  tutorial01_mf6.nam  tutorial01_mf6
END models

BEGIN exchanges
END exchanges

BEGIN solutiongroup  1
  ims6  tutorial01_mf6.ims  tutorial01_mf6
END solutiongroup  1

