# File generated by Flopy version 3.3.2 on 01/22/2021 at 14:57:43.
BEGIN options
  COMPLEXITY  simple
END options

