# File generated by Flopy version 3.3.2 on 01/22/2021 at 14:46:48.
BEGIN options
  COMPLEXITY  simple
END options

