<<<<<<< HEAD
# File generated by Flopy version 3.3.2 on 01/25/2021 at 17:59:33.
=======
# File generated by Flopy version 3.3.2 on 01/25/2021 at 17:42:58.
>>>>>>> experiment1
BEGIN options
  TIME_UNITS  days
END options

BEGIN dimensions
  NPER  1
END dimensions

BEGIN perioddata
       1.00000000  1       1.00000000
END perioddata

