# File generated by Flopy version 3.3.2 on 01/25/2021 at 18:28:09.
BEGIN options
  BUDGET  FILEOUT  tutorial01_mf6.cbb
  HEAD  FILEOUT  tutorial01_mf6.hds
END options

BEGIN period  1
  SAVE  HEAD  ALL
  SAVE  BUDGET  ALL
  PRINT  HEAD  LAST
END period  1

