<<<<<<< HEAD
# File generated by Flopy version 3.3.2 on 01/25/2021 at 17:59:33.
=======
# File generated by Flopy version 3.3.2 on 01/25/2021 at 17:42:58.
>>>>>>> experiment1
BEGIN options
  COMPLEXITY  simple
END options

